REMARK  21 active torsions:
REMARK  status: ('A' for Active; 'I' for Inactive)
REMARK    1  A    between atoms: C1_1  and  C3_6 
REMARK    2  A    between atoms: N1_3  and  C8_12 
REMARK    3  A    between atoms: C4_8  and  C14_19 
REMARK    4  A    between atoms: C8_12  and  C9_13 
REMARK    5  A    between atoms: C11_15  and  O5_43 
REMARK    6  A    between atoms: C13_17  and  C18_23 
REMARK    7  A    between atoms: C14_19  and  C15_20 
REMARK    8  A    between atoms: C15_20  and  C16_21 
REMARK    9  A    between atoms: C16_21  and  C17_22 
REMARK   10  A    between atoms: C17_22  and  O4_29 
REMARK   11  A    between atoms: C18_23  and  C19_24 
REMARK   12  A    between atoms: C19_24  and  C20_25 
REMARK   13  A    between atoms: C20_25  and  C21_26 
REMARK   14  A    between atoms: C21_26  and  O3_27 
REMARK   15  A    between atoms: O3_27  and  C22_28 
REMARK   16  A    between atoms: C22_28  and  C30_37 
REMARK   17  A    between atoms: O4_29  and  C23_30 
REMARK   18  A    between atoms: C23_30  and  C24_31 
REMARK   19  A    between atoms: O5_43  and  C36_44 
REMARK   20  A    between atoms: C36_44  and  C37_45 
REMARK   21  A    between atoms: C37_45  and  C38_46 
ROOT
HETATM    1  C1  UNK   900      -0.839   8.008  -2.262  1.00  0.00     0.098 A 
HETATM    2  C2  UNK   900      -0.955   8.589  -1.016  1.00  0.00     0.139 A 
HETATM    3  N1  UNK   900      -2.259   8.399  -0.682  1.00  0.00    -0.281 N 
HETATM    4  N2  UNK   900      -2.942   7.821  -1.683  1.00  0.00     0.004 NA
HETATM    5  N3  UNK   900      -2.079   7.570  -2.659  1.00  0.00    -0.160 NA
ENDROOT
BRANCH   1   6
HETATM    6  C3  UNK   900       0.403   7.796  -3.069  1.00  0.00     0.176 C 
HETATM    7  C7  UNK   900       0.200   6.849  -4.256  1.00  0.00     0.039 C 
HETATM    8  C6  UNK   900       1.519   6.592  -4.979  1.00  0.00     0.005 C 
HETATM    9  C5  UNK   900       2.593   6.139  -3.995  1.00  0.00     0.032 C 
HETATM   10  C4  UNK   900       2.697   7.115  -2.823  1.00  0.00     0.122 C 
HETATM   11  O1  UNK   900       1.420   7.265  -2.206  1.00  0.00    -0.374 OA
BRANCH  10  12
HETATM   12  C14 UNK   900       3.657   6.584  -1.748  1.00  0.00     0.032 C 
BRANCH  12  13
HETATM   13  C15 UNK   900       3.856   7.596  -0.610  1.00  0.00     0.004 C 
BRANCH  13  14
HETATM   14  C16 UNK   900       4.638   7.024   0.580  1.00  0.00     0.026 C 
BRANCH  14  15
HETATM   15  C17 UNK   900       3.845   6.023   1.422  1.00  0.00     0.168 C 
BRANCH  15  16
HETATM   16  O4  UNK   900       2.677   6.663   1.936  1.00  0.00    -0.387 OA
BRANCH  16  17
HETATM   17  C23 UNK   900       1.825   5.772   2.663  1.00  0.00     0.206 C 
BRANCH  17  18
HETATM   18  C24 UNK   900       0.988   4.894   1.762  1.00  0.00    -0.035 A 
HETATM   19  C29 UNK   900       0.499   5.367   0.538  1.00  0.00     0.009 A 
HETATM   20  C28 UNK   900      -0.295   4.559  -0.276  1.00  0.00     0.001 A 
HETATM   21  C27 UNK   900      -0.615   3.266   0.128  1.00  0.00     0.000 A 
HETATM   22  C26 UNK   900      -0.149   2.786   1.351  1.00  0.00     0.001 A 
HETATM   23  C25 UNK   900       0.642   3.598   2.167  1.00  0.00     0.009 A 
ENDBRANCH  17  18
ENDBRANCH  16  17
ENDBRANCH  15  16
ENDBRANCH  14  15
ENDBRANCH  13  14
ENDBRANCH  12  13
ENDBRANCH  10  12
ENDBRANCH   1   6
BRANCH   3  24
HETATM   24  C8  UNK   900      -2.886   8.688   0.587  1.00  0.00     0.178 C 
BRANCH  24  25
HETATM   25  C9  UNK   900      -2.617   7.595   1.626  1.00  0.00     0.143 C 
HETATM   26  O2  UNK   900      -2.787   8.177   2.929  1.00  0.00    -0.379 OA
HETATM   27  C13 UNK   900      -2.442   7.259   3.976  1.00  0.00     0.124 C 
HETATM   28  C12 UNK   900      -3.418   6.087   3.946  1.00  0.00     0.064 C 
HETATM   29  C11 UNK   900      -3.350   5.384   2.591  1.00  0.00     0.126 C 
HETATM   30  C10 UNK   900      -3.558   6.399   1.463  1.00  0.00     0.065 C 
BRANCH  27  31
HETATM   31  C18 UNK   900      -2.502   7.994   5.319  1.00  0.00     0.032 C 
BRANCH  31  32
HETATM   32  C19 UNK   900      -1.641   9.261   5.389  1.00  0.00     0.004 C 
BRANCH  32  33
HETATM   33  C20 UNK   900      -0.147   9.096   5.084  1.00  0.00     0.026 C 
BRANCH  33  34
HETATM   34  C21 UNK   900       0.606   8.218   6.080  1.00  0.00     0.168 C 
BRANCH  34  35
HETATM   35  O3  UNK   900       0.326   6.843   5.830  1.00  0.00    -0.387 OA
BRANCH  35  36
HETATM   36  C22 UNK   900       1.041   5.991   6.726  1.00  0.00     0.206 C 
BRANCH  36  37
HETATM   37  C30 UNK   900       0.771   4.548   6.380  1.00  0.00    -0.035 A 
HETATM   38  C35 UNK   900      -0.537   4.101   6.149  1.00  0.00     0.009 A 
HETATM   39  C34 UNK   900      -0.793   2.759   5.863  1.00  0.00     0.001 A 
HETATM   40  C33 UNK   900       0.258   1.844   5.820  1.00  0.00     0.000 A 
HETATM   41  C32 UNK   900       1.562   2.272   6.061  1.00  0.00     0.001 A 
HETATM   42  C31 UNK   900       1.818   3.617   6.341  1.00  0.00     0.009 A 
ENDBRANCH  36  37
ENDBRANCH  35  36
ENDBRANCH  34  35
ENDBRANCH  33  34
ENDBRANCH  32  33
ENDBRANCH  31  32
ENDBRANCH  27  31
BRANCH  29  43
HETATM   43  O5  UNK   900      -4.376   4.385   2.576  1.00  0.00    -0.386 OA
BRANCH  43  44
HETATM   44  C36 UNK   900      -4.134   3.348   1.626  1.00  0.00     0.168 C 
BRANCH  44  45
HETATM   45  C37 UNK   900      -5.302   2.370   1.681  1.00  0.00     0.026 C 
BRANCH  45  46
HETATM   46  C38 UNK   900      -5.114   1.215   0.702  1.00  0.00    -0.002 C 
HETATM   47  C39 UNK   900      -6.279   0.241   0.760  1.00  0.00     0.005 C 
ENDBRANCH  45  46
ENDBRANCH  44  45
ENDBRANCH  43  44
ENDBRANCH  29  43
ENDBRANCH  24  25
ENDBRANCH   3  24
TORSDOF 21
