REMARK  21 active torsions:
REMARK  status: ('A' for Active; 'I' for Inactive)
REMARK    1  A    between atoms: C1_1  and  C3_6 
REMARK    2  A    between atoms: N1_3  and  C8_12 
REMARK    3  A    between atoms: C4_8  and  C14_19 
REMARK    4  A    between atoms: C6_10  and  O5_43 
REMARK    5  A    between atoms: C8_12  and  C9_13 
REMARK    6  A    between atoms: C13_17  and  C18_23 
REMARK    7  A    between atoms: C14_19  and  C15_20 
REMARK    8  A    between atoms: C15_20  and  C16_21 
REMARK    9  A    between atoms: C16_21  and  C17_22 
REMARK   10  A    between atoms: C17_22  and  O4_29 
REMARK   11  A    between atoms: C18_23  and  C19_24 
REMARK   12  A    between atoms: C19_24  and  C20_25 
REMARK   13  A    between atoms: C20_25  and  C21_26 
REMARK   14  A    between atoms: C21_26  and  O3_27 
REMARK   15  A    between atoms: O3_27  and  C22_28 
REMARK   16  A    between atoms: C22_28  and  C30_37 
REMARK   17  A    between atoms: O4_29  and  C23_30 
REMARK   18  A    between atoms: C23_30  and  C24_31 
REMARK   19  A    between atoms: O5_43  and  C36_44 
REMARK   20  A    between atoms: C36_44  and  C37_45 
REMARK   21  A    between atoms: C37_45  and  C38_46 
ROOT
HETATM    1  C1  UNK   900       4.271   3.614 -15.791  1.00  0.00     0.098 A 
HETATM    2  C2  UNK   900       3.646   2.657 -15.024  1.00  0.00     0.139 A 
HETATM    3  N1  UNK   900       4.471   1.579 -15.093  1.00  0.00    -0.281 N 
HETATM    4  N2  UNK   900       5.533   1.825 -15.882  1.00  0.00     0.004 NA
HETATM    5  N3  UNK   900       5.420   3.073 -16.321  1.00  0.00    -0.160 NA
ENDROOT
BRANCH   1   6
HETATM    6  C3  UNK   900       3.866   5.022 -16.078  1.00  0.00     0.179 C 
HETATM    7  C7  UNK   900       4.904   6.023 -15.569  1.00  0.00     0.070 C 
HETATM    8  C6  UNK   900       4.453   7.454 -15.863  1.00  0.00     0.126 C 
HETATM    9  C5  UNK   900       3.030   7.680 -15.349  1.00  0.00     0.064 C 
HETATM   10  C4  UNK   900       2.081   6.594 -15.851  1.00  0.00     0.124 C 
HETATM   11  O1  UNK   900       2.597   5.321 -15.472  1.00  0.00    -0.374 OA
BRANCH   8  12
HETATM   12  O5  UNK   900       5.280   8.422 -15.210  1.00  0.00    -0.386 OA
BRANCH  12  13
HETATM   13  C36 UNK   900       6.582   8.559 -15.775  1.00  0.00     0.168 C 
BRANCH  13  14
HETATM   14  C37 UNK   900       7.310   9.694 -15.059  1.00  0.00     0.026 C 
BRANCH  14  15
HETATM   15  C38 UNK   900       6.642  11.051 -15.298  1.00  0.00    -0.002 C 
HETATM   16  C39 UNK   900       7.363  12.163 -14.553  1.00  0.00     0.005 C 
ENDBRANCH  14  15
ENDBRANCH  13  14
ENDBRANCH  12  13
ENDBRANCH   8  12
BRANCH  10  17
HETATM   17  C14 UNK   900       0.692   6.771 -15.220  1.00  0.00     0.032 C 
BRANCH  17  18
HETATM   18  C15 UNK   900      -0.398   5.854 -15.795  1.00  0.00     0.004 C 
BRANCH  18  19
HETATM   19  C16 UNK   900      -0.217   4.348 -15.599  1.00  0.00     0.026 C 
BRANCH  19  20
HETATM   20  C17 UNK   900      -0.065   3.920 -14.143  1.00  0.00     0.168 C 
BRANCH  20  21
HETATM   21  O4  UNK   900       0.036   2.495 -14.108  1.00  0.00    -0.387 OA
BRANCH  21  22
HETATM   22  C23 UNK   900       0.236   2.012 -12.779  1.00  0.00     0.206 C 
BRANCH  22  23
HETATM   23  C24 UNK   900       0.401   0.510 -12.764  1.00  0.00    -0.035 A 
HETATM   24  C29 UNK   900      -0.026  -0.298 -13.828  1.00  0.00     0.009 A 
HETATM   25  C28 UNK   900       0.114  -1.686 -13.769  1.00  0.00     0.001 A 
HETATM   26  C27 UNK   900       0.671  -2.285 -12.642  1.00  0.00     0.000 A 
HETATM   27  C26 UNK   900       1.087  -1.497 -11.572  1.00  0.00     0.001 A 
HETATM   28  C25 UNK   900       0.953  -0.109 -11.632  1.00  0.00     0.009 A 
ENDBRANCH  22  23
ENDBRANCH  21  22
ENDBRANCH  20  21
ENDBRANCH  19  20
ENDBRANCH  18  19
ENDBRANCH  17  18
ENDBRANCH  10  17
ENDBRANCH   1   6
BRANCH   3  29
HETATM   29  C8  UNK   900       4.327   0.310 -14.408  1.00  0.00     0.177 C 
BRANCH  29  30
HETATM   30  C9  UNK   900       5.006   0.344 -13.038  1.00  0.00     0.141 C 
HETATM   31  O2  UNK   900       4.276   1.244 -12.191  1.00  0.00    -0.379 OA
HETATM   32  C13 UNK   900       4.911   1.437 -10.923  1.00  0.00     0.122 C 
HETATM   33  C12 UNK   900       4.886   0.116 -10.155  1.00  0.00     0.032 C 
HETATM   34  C11 UNK   900       5.571  -0.982 -10.968  1.00  0.00     0.005 C 
HETATM   35  C10 UNK   900       5.019  -1.044 -12.392  1.00  0.00     0.034 C 
BRANCH  32  36
HETATM   36  C18 UNK   900       4.158   2.550 -10.186  1.00  0.00     0.032 C 
BRANCH  36  37
HETATM   37  C19 UNK   900       4.300   3.887 -10.925  1.00  0.00     0.004 C 
BRANCH  37  38
HETATM   38  C20 UNK   900       3.525   5.012 -10.236  1.00  0.00     0.026 C 
BRANCH  38  39
HETATM   39  C21 UNK   900       3.723   6.344 -10.958  1.00  0.00     0.168 C 
BRANCH  39  40
HETATM   40  O3  UNK   900       5.084   6.749 -10.803  1.00  0.00    -0.387 OA
BRANCH  40  41
HETATM   41  C22 UNK   900       5.430   7.857 -11.637  1.00  0.00     0.206 C 
BRANCH  41  42
HETATM   42  C30 UNK   900       4.892   9.169 -11.123  1.00  0.00    -0.035 A 
HETATM   43  C35 UNK   900       4.977   9.497  -9.762  1.00  0.00     0.009 A 
HETATM   44  C34 UNK   900       4.504  10.726  -9.299  1.00  0.00     0.001 A 
HETATM   45  C33 UNK   900       3.952  11.643 -10.191  1.00  0.00     0.000 A 
HETATM   46  C32 UNK   900       3.875  11.333 -11.548  1.00  0.00     0.001 A 
HETATM   47  C31 UNK   900       4.345  10.104 -12.012  1.00  0.00     0.009 A 
ENDBRANCH  41  42
ENDBRANCH  40  41
ENDBRANCH  39  40
ENDBRANCH  38  39
ENDBRANCH  37  38
ENDBRANCH  36  37
ENDBRANCH  32  36
ENDBRANCH  29  30
ENDBRANCH   3  29
TORSDOF 21
