REMARK  16 active torsions:
REMARK  status: ('A' for Active; 'I' for Inactive)
REMARK    1  A    between atoms: C1_1  and  C6_7 
REMARK    2  A    between atoms: C3_3  and  O2_12 
REMARK    3  A    between atoms: C5_5  and  C10_11 
REMARK    4  A    between atoms: C6_7  and  C7_8 
REMARK    5  A    between atoms: C7_8  and  C8_9 
REMARK    6  A    between atoms: C8_9  and  C9_10 
REMARK    7  A    between atoms: C9_10  and  O3_29 
REMARK    8  A    between atoms: O2_12  and  C32_38 
REMARK    9  A    between atoms: N1_14  and  C24_30 
REMARK   10  A    between atoms: C12_17  and  C36_42 
REMARK   11  A    between atoms: C16_21  and  C18_23 
REMARK   12  A    between atoms: O3_29  and  C25_31 
REMARK   13  A    between atoms: C24_30  and  C35_41 
REMARK   14  A    between atoms: C25_31  and  C26_32 
REMARK   15  A    between atoms: C32_38  and  C33_39 
REMARK   16  A    between atoms: C35_41  and  C36_42 
ROOT
HETATM    1  C1  UNK   900      -3.773 -31.715 -10.930  1.00  0.00     0.124 C 
HETATM    2  C2  UNK   900      -5.110 -32.105 -10.303  1.00  0.00     0.064 C 
HETATM    3  C3  UNK   900      -5.874 -30.852  -9.874  1.00  0.00     0.126 C 
HETATM    4  C4  UNK   900      -4.990 -30.000  -8.968  1.00  0.00     0.070 C 
HETATM    5  C5  UNK   900      -3.651 -29.696  -9.642  1.00  0.00     0.179 C 
HETATM    6  O1  UNK   900      -3.005 -30.917 -10.033  1.00  0.00    -0.374 OA
ENDROOT
BRANCH   1   7
HETATM    7  C6  UNK   900      -2.925 -32.925 -11.354  1.00  0.00     0.032 C 
BRANCH   7   8
HETATM    8  C7  UNK   900      -2.645 -33.998 -10.290  1.00  0.00     0.004 C 
BRANCH   8   9
HETATM    9  C8  UNK   900      -1.970 -33.535  -8.999  1.00  0.00     0.026 C 
BRANCH   9  10
HETATM   10  C9  UNK   900      -0.597 -32.904  -9.203  1.00  0.00     0.168 C 
BRANCH  10  11
HETATM   11  O3  UNK   900      -0.090 -32.532  -7.921  1.00  0.00    -0.387 OA
BRANCH  11  12
HETATM   12  C25 UNK   900       1.176 -31.882  -8.020  1.00  0.00     0.206 C 
BRANCH  12  13
HETATM   13  C26 UNK   900       1.597 -31.308  -6.687  1.00  0.00    -0.035 A 
HETATM   14  C31 UNK   900       1.047 -31.756  -5.477  1.00  0.00     0.009 A 
HETATM   15  C30 UNK   900       1.468 -31.217  -4.260  1.00  0.00     0.001 A 
HETATM   16  C29 UNK   900       2.450 -30.230  -4.235  1.00  0.00     0.000 A 
HETATM   17  C28 UNK   900       3.015 -29.783  -5.428  1.00  0.00     0.001 A 
HETATM   18  C27 UNK   900       2.594 -30.322  -6.646  1.00  0.00     0.009 A 
ENDBRANCH  12  13
ENDBRANCH  11  12
ENDBRANCH  10  11
ENDBRANCH   9  10
ENDBRANCH   8   9
ENDBRANCH   7   8
ENDBRANCH   1   7
BRANCH   3  19
HETATM   19  O2  UNK   900      -7.052 -31.188  -9.133  1.00  0.00    -0.386 OA
BRANCH  19  20
HETATM   20  C32 UNK   900      -8.137 -31.631  -9.945  1.00  0.00     0.167 C 
BRANCH  20  21
HETATM   21  C33 UNK   900      -9.335 -31.879  -9.037  1.00  0.00     0.022 C 
HETATM   22  C34 UNK   900     -10.549 -32.350  -9.819  1.00  0.00     0.007 C 
ENDBRANCH  20  21
ENDBRANCH  19  20
ENDBRANCH   3  19
BRANCH   5  23
HETATM   23  C10 UNK   900      -2.767 -28.914  -8.727  1.00  0.00     0.098 A 
HETATM   24  N3  UNK   900      -2.725 -27.543  -8.766  1.00  0.00    -0.160 NA
HETATM   25  N2  UNK   900      -1.895 -27.127  -7.816  1.00  0.00     0.004 NA
HETATM   26  N1  UNK   900      -1.441 -28.218  -7.172  1.00  0.00    -0.283 N 
HETATM   27  C11 UNK   900      -1.928 -29.358  -7.729  1.00  0.00     0.139 A 
BRANCH  26  28
HETATM   28  C24 UNK   900      -0.573 -28.100  -6.024  1.00  0.00     0.146 C 
BRANCH  28  29
HETATM   29  C35 UNK   900      -1.126 -27.235  -4.886  1.00  0.00     0.026 C 
BRANCH  29  30
HETATM   30  C36 UNK   900      -2.501 -27.662  -4.354  1.00  0.00     0.040 C 
BRANCH  30  31
HETATM   31  C12 UNK   900      -2.549 -29.082  -3.846  1.00  0.00    -0.057 A 
HETATM   32  C17 UNK   900      -3.252 -30.062  -4.565  1.00  0.00     0.019 A 
HETATM   33  C16 UNK   900      -3.285 -31.406  -4.153  1.00  0.00    -0.025 A 
HETATM   34  C15 UNK   900      -2.609 -31.740  -2.969  1.00  0.00     0.012 A 
HETATM   35  C14 UNK   900      -1.922 -30.772  -2.232  1.00  0.00     0.001 A 
HETATM   36  C13 UNK   900      -1.887 -29.450  -2.672  1.00  0.00     0.007 A 
BRANCH  33  37
HETATM   37  C18 UNK   900      -3.996 -32.424  -4.949  1.00  0.00    -0.026 A 
HETATM   38  C23 UNK   900      -3.389 -33.650  -5.271  1.00  0.00     0.012 A 
HETATM   39  C22 UNK   900      -4.056 -34.609  -6.040  1.00  0.00     0.001 A 
HETATM   40  C21 UNK   900      -5.341 -34.356  -6.511  1.00  0.00     0.000 A 
HETATM   41  C20 UNK   900      -5.961 -33.147  -6.209  1.00  0.00     0.001 A 
HETATM   42  C19 UNK   900      -5.296 -32.194  -5.432  1.00  0.00     0.012 A 
ENDBRANCH  33  37
ENDBRANCH  30  31
ENDBRANCH  29  30
ENDBRANCH  28  29
ENDBRANCH  26  28
ENDBRANCH   5  23
TORSDOF 16
