MODEL 1
REMARK VINA RESULT:      -9.1      0.000      0.000
REMARK  21 active torsions:
REMARK  status: ('A' for Active; 'I' for Inactive)
REMARK    1  A    between atoms: C1_1  and  C3_6 
REMARK    2  A    between atoms: N1_3  and  C8_12 
REMARK    3  A    between atoms: C4_8  and  C14_19 
REMARK    4  A    between atoms: C8_12  and  C9_13 
REMARK    5  A    between atoms: C11_15  and  O5_43 
REMARK    6  A    between atoms: C13_17  and  C18_23 
REMARK    7  A    between atoms: C14_19  and  C15_20 
REMARK    8  A    between atoms: C15_20  and  C16_21 
REMARK    9  A    between atoms: C16_21  and  C17_22 
REMARK   10  A    between atoms: C17_22  and  O4_29 
REMARK   11  A    between atoms: C18_23  and  C19_24 
REMARK   12  A    between atoms: C19_24  and  C20_25 
REMARK   13  A    between atoms: C20_25  and  C21_26 
REMARK   14  A    between atoms: C21_26  and  O3_27 
REMARK   15  A    between atoms: O3_27  and  C22_28 
REMARK   16  A    between atoms: C22_28  and  C30_37 
REMARK   17  A    between atoms: O4_29  and  C23_30 
REMARK   18  A    between atoms: C23_30  and  C24_31 
REMARK   19  A    between atoms: O5_43  and  C36_44 
REMARK   20  A    between atoms: C36_44  and  C37_45 
REMARK   21  A    between atoms: C37_45  and  C38_46 
ROOT
HETATM    1  C1  UNK   900      30.336  25.959  23.714  1.00  0.00     0.098 A 
HETATM    2  C2  UNK   900      31.660  25.573  23.743  1.00  0.00     0.139 A 
HETATM    3  N1  UNK   900      32.315  26.586  23.114  1.00  0.00    -0.281 N 
HETATM    4  N2  UNK   900      31.457  27.503  22.640  1.00  0.00     0.004 NA
HETATM    5  N3  UNK   900      30.237  27.133  23.007  1.00  0.00    -0.160 NA
ENDROOT
BRANCH   1   6
HETATM    6  C3  UNK   900      29.168  25.299  24.375  1.00  0.00     0.176 C 
HETATM    7  C7  UNK   900      28.340  26.255  25.240  1.00  0.00     0.039 C 
HETATM    8  C6  UNK   900      27.227  25.507  25.966  1.00  0.00     0.005 C 
HETATM    9  C5  UNK   900      27.789  24.308  26.724  1.00  0.00     0.032 C 
HETATM   10  C4  UNK   900      28.636  23.434  25.798  1.00  0.00     0.122 C 
HETATM   11  O1  UNK   900      29.656  24.223  25.191  1.00  0.00    -0.374 OA
BRANCH  10  12
HETATM   12  C14 UNK   900      29.338  22.318  26.586  1.00  0.00     0.032 C 
BRANCH  12  13
HETATM   13  C15 UNK   900      30.777  22.702  26.960  1.00  0.00     0.004 C 
BRANCH  13  14
HETATM   14  C16 UNK   900      31.179  22.249  28.370  1.00  0.00     0.026 C 
BRANCH  14  15
HETATM   15  C17 UNK   900      32.594  22.663  28.777  1.00  0.00     0.168 C 
BRANCH  15  16
HETATM   16  O4  UNK   900      32.673  24.088  28.819  1.00  0.00    -0.387 OA
BRANCH  16  17
HETATM   17  C23 UNK   900      31.884  24.661  29.867  1.00  0.00     0.206 C 
BRANCH  17  18
HETATM   18  C24 UNK   900      30.937  25.729  29.372  1.00  0.00    -0.035 A 
HETATM   19  C29 UNK   900      29.624  25.814  29.851  1.00  0.00     0.009 A 
HETATM   20  C28 UNK   900      28.748  26.787  29.370  1.00  0.00     0.001 A 
HETATM   21  C27 UNK   900      29.173  27.685  28.396  1.00  0.00     0.000 A 
HETATM   22  C26 UNK   900      30.472  27.603  27.897  1.00  0.00     0.001 A 
HETATM   23  C25 UNK   900      31.347  26.626  28.376  1.00  0.00     0.009 A 
ENDBRANCH  17  18
ENDBRANCH  16  17
ENDBRANCH  15  16
ENDBRANCH  14  15
ENDBRANCH  13  14
ENDBRANCH  12  13
ENDBRANCH  10  12
ENDBRANCH   1   6
BRANCH   3  24
HETATM   24  C8  UNK   900      33.744  26.759  22.994  1.00  0.00     0.178 C 
BRANCH  24  25
HETATM   25  C9  UNK   900      34.251  27.953  23.810  1.00  0.00     0.143 C 
HETATM   26  O2  UNK   900      34.333  27.541  25.184  1.00  0.00    -0.379 OA
HETATM   27  C13 UNK   900      34.690  28.628  26.050  1.00  0.00     0.124 C 
HETATM   28  C12 UNK   900      36.100  29.095  25.701  1.00  0.00     0.064 C 
HETATM   29  C11 UNK   900      36.155  29.547  24.242  1.00  0.00     0.126 C 
HETATM   30  C10 UNK   900      35.620  28.440  23.329  1.00  0.00     0.065 C 
BRANCH  27  31
HETATM   31  C18 UNK   900      34.609  28.151  27.503  1.00  0.00     0.032 C 
BRANCH  31  32
HETATM   32  C19 UNK   900      34.676  29.275  28.545  1.00  0.00     0.004 C 
BRANCH  32  33
HETATM   33  C20 UNK   900      33.341  29.886  28.986  1.00  0.00     0.026 C 
BRANCH  33  34
HETATM   34  C21 UNK   900      33.453  31.296  29.562  1.00  0.00     0.168 C 
BRANCH  34  35
HETATM   35  O3  UNK   900      32.660  32.201  28.799  1.00  0.00    -0.387 OA
BRANCH  35  36
HETATM   36  C22 UNK   900      33.448  33.264  28.261  1.00  0.00     0.206 C 
BRANCH  36  37
HETATM   37  C30 UNK   900      33.428  33.199  26.754  1.00  0.00    -0.035 A 
HETATM   38  C35 UNK   900      33.042  32.025  26.094  1.00  0.00     0.009 A 
HETATM   39  C34 UNK   900      33.057  31.951  24.700  1.00  0.00     0.001 A 
HETATM   40  C33 UNK   900      33.474  33.050  23.950  1.00  0.00     0.000 A 
HETATM   41  C32 UNK   900      33.874  34.219  24.593  1.00  0.00     0.001 A 
HETATM   42  C31 UNK   900      33.852  34.294  25.989  1.00  0.00     0.009 A 
ENDBRANCH  36  37
ENDBRANCH  35  36
ENDBRANCH  34  35
ENDBRANCH  33  34
ENDBRANCH  32  33
ENDBRANCH  31  32
ENDBRANCH  27  31
BRANCH  29  43
HETATM   43  O5  UNK   900      37.523  29.844  23.939  1.00  0.00    -0.386 OA
BRANCH  43  44
HETATM   44  C36 UNK   900      38.431  28.855  24.423  1.00  0.00     0.168 C 
BRANCH  44  45
HETATM   45  C37 UNK   900      39.756  29.539  24.740  1.00  0.00     0.026 C 
BRANCH  45  46
HETATM   46  C38 UNK   900      39.585  31.047  24.903  1.00  0.00    -0.002 C 
HETATM   47  C39 UNK   900      39.351  31.426  26.356  1.00  0.00     0.005 C 
ENDBRANCH  45  46
ENDBRANCH  44  45
ENDBRANCH  43  44
ENDBRANCH  29  43
ENDBRANCH  24  25
ENDBRANCH   3  24
TORSDOF 21
ENDMDL
MODEL 2
REMARK VINA RESULT:      -9.0      4.563      8.763
REMARK  21 active torsions:
REMARK  status: ('A' for Active; 'I' for Inactive)
REMARK    1  A    between atoms: C1_1  and  C3_6 
REMARK    2  A    between atoms: N1_3  and  C8_12 
REMARK    3  A    between atoms: C4_8  and  C14_19 
REMARK    4  A    between atoms: C8_12  and  C9_13 
REMARK    5  A    between atoms: C11_15  and  O5_43 
REMARK    6  A    between atoms: C13_17  and  C18_23 
REMARK    7  A    between atoms: C14_19  and  C15_20 
REMARK    8  A    between atoms: C15_20  and  C16_21 
REMARK    9  A    between atoms: C16_21  and  C17_22 
REMARK   10  A    between atoms: C17_22  and  O4_29 
REMARK   11  A    between atoms: C18_23  and  C19_24 
REMARK   12  A    between atoms: C19_24  and  C20_25 
REMARK   13  A    between atoms: C20_25  and  C21_26 
REMARK   14  A    between atoms: C21_26  and  O3_27 
REMARK   15  A    between atoms: O3_27  and  C22_28 
REMARK   16  A    between atoms: C22_28  and  C30_37 
REMARK   17  A    between atoms: O4_29  and  C23_30 
REMARK   18  A    between atoms: C23_30  and  C24_31 
REMARK   19  A    between atoms: O5_43  and  C36_44 
REMARK   20  A    between atoms: C36_44  and  C37_45 
REMARK   21  A    between atoms: C37_45  and  C38_46 
ROOT
HETATM    1  C1  UNK   900      37.415  31.972  27.755  1.00  0.00     0.098 A 
HETATM    2  C2  UNK   900      37.609  31.114  26.693  1.00  0.00     0.139 A 
HETATM    3  N1  UNK   900      38.958  31.090  26.529  1.00  0.00    -0.281 N 
HETATM    4  N2  UNK   900      39.569  31.943  27.367  1.00  0.00     0.004 NA
HETATM    5  N3  UNK   900      38.631  32.488  28.131  1.00  0.00    -0.160 NA
ENDROOT
BRANCH   1   6
HETATM    6  C3  UNK   900      36.136  32.282  28.469  1.00  0.00     0.176 C 
HETATM    7  C7  UNK   900      35.253  31.050  28.692  1.00  0.00     0.039 C 
HETATM    8  C6  UNK   900      33.924  31.441  29.331  1.00  0.00     0.005 C 
HETATM    9  C5  UNK   900      33.252  32.556  28.536  1.00  0.00     0.032 C 
HETATM   10  C4  UNK   900      34.216  33.723  28.322  1.00  0.00     0.122 C 
HETATM   11  O1  UNK   900      35.411  33.253  27.701  1.00  0.00    -0.374 OA
BRANCH  10  12
HETATM   12  C14 UNK   900      33.606  34.777  27.386  1.00  0.00     0.032 C 
BRANCH  12  13
HETATM   13  C15 UNK   900      33.109  34.154  26.073  1.00  0.00     0.004 C 
BRANCH  13  14
HETATM   14  C16 UNK   900      33.922  34.594  24.848  1.00  0.00     0.026 C 
BRANCH  14  15
HETATM   15  C17 UNK   900      33.902  33.589  23.695  1.00  0.00     0.168 C 
BRANCH  15  16
HETATM   16  O4  UNK   900      33.312  32.369  24.145  1.00  0.00    -0.387 OA
BRANCH  16  17
HETATM   17  C23 UNK   900      34.244  31.511  24.812  1.00  0.00     0.206 C 
BRANCH  17  18
HETATM   18  C24 UNK   900      33.574  30.361  25.529  1.00  0.00    -0.035 A 
HETATM   19  C29 UNK   900      32.276  30.483  26.042  1.00  0.00     0.009 A 
HETATM   20  C28 UNK   900      31.675  29.427  26.726  1.00  0.00     0.001 A 
HETATM   21  C27 UNK   900      32.367  28.233  26.910  1.00  0.00     0.000 A 
HETATM   22  C26 UNK   900      33.665  28.102  26.419  1.00  0.00     0.001 A 
HETATM   23  C25 UNK   900      34.268  29.163  25.739  1.00  0.00     0.009 A 
ENDBRANCH  17  18
ENDBRANCH  16  17
ENDBRANCH  15  16
ENDBRANCH  14  15
ENDBRANCH  13  14
ENDBRANCH  12  13
ENDBRANCH  10  12
ENDBRANCH   1   6
BRANCH   3  24
HETATM   24  C8  UNK   900      39.715  30.237  25.642  1.00  0.00     0.178 C 
BRANCH  24  25
HETATM   25  C9  UNK   900      38.958  28.952  25.292  1.00  0.00     0.143 C 
HETATM   26  O2  UNK   900      38.150  29.222  24.134  1.00  0.00    -0.379 OA
HETATM   27  C13 UNK   900      37.310  28.109  23.795  1.00  0.00     0.124 C 
HETATM   28  C12 UNK   900      38.191  26.932  23.386  1.00  0.00     0.064 C 
HETATM   29  C11 UNK   900      39.123  26.553  24.536  1.00  0.00     0.126 C 
HETATM   30  C10 UNK   900      39.904  27.784  25.006  1.00  0.00     0.065 C 
BRANCH  27  31
HETATM   31  C18 UNK   900      36.377  28.523  22.653  1.00  0.00     0.032 C 
BRANCH  31  32
HETATM   32  C19 UNK   900      36.307  27.521  21.494  1.00  0.00     0.004 C 
BRANCH  32  33
HETATM   33  C20 UNK   900      36.509  28.085  20.082  1.00  0.00     0.026 C 
BRANCH  33  34
HETATM   34  C21 UNK   900      37.906  28.640  19.819  1.00  0.00     0.168 C 
BRANCH  34  35
HETATM   35  O3  UNK   900      38.012  29.082  18.468  1.00  0.00    -0.387 OA
BRANCH  35  36
HETATM   36  C22 UNK   900      36.769  28.953  17.776  1.00  0.00     0.206 C 
BRANCH  36  37
HETATM   37  C30 UNK   900      36.339  30.298  17.247  1.00  0.00    -0.035 A 
HETATM   38  C35 UNK   900      34.986  30.662  17.232  1.00  0.00     0.009 A 
HETATM   39  C34 UNK   900      34.583  31.892  16.710  1.00  0.00     0.001 A 
HETATM   40  C33 UNK   900      35.530  32.768  16.183  1.00  0.00     0.000 A 
HETATM   41  C32 UNK   900      36.878  32.414  16.179  1.00  0.00     0.001 A 
HETATM   42  C31 UNK   900      37.281  31.185  16.707  1.00  0.00     0.009 A 
ENDBRANCH  36  37
ENDBRANCH  35  36
ENDBRANCH  34  35
ENDBRANCH  33  34
ENDBRANCH  32  33
ENDBRANCH  31  32
ENDBRANCH  27  31
BRANCH  29  43
HETATM   43  O5  UNK   900      40.011  25.539  24.050  1.00  0.00    -0.386 OA
BRANCH  43  44
HETATM   44  C36 UNK   900      39.636  24.224  24.458  1.00  0.00     0.168 C 
BRANCH  44  45
HETATM   45  C37 UNK   900      39.798  23.291  23.264  1.00  0.00     0.026 C 
BRANCH  45  46
HETATM   46  C38 UNK   900      40.980  22.344  23.448  1.00  0.00    -0.002 C 
HETATM   47  C39 UNK   900      41.783  22.690  24.691  1.00  0.00     0.005 C 
ENDBRANCH  45  46
ENDBRANCH  44  45
ENDBRANCH  43  44
ENDBRANCH  29  43
ENDBRANCH  24  25
ENDBRANCH   3  24
TORSDOF 21
ENDMDL
MODEL 3
REMARK VINA RESULT:      -8.9      2.114      4.929
REMARK  21 active torsions:
REMARK  status: ('A' for Active; 'I' for Inactive)
REMARK    1  A    between atoms: C1_1  and  C3_6 
REMARK    2  A    between atoms: N1_3  and  C8_12 
REMARK    3  A    between atoms: C4_8  and  C14_19 
REMARK    4  A    between atoms: C8_12  and  C9_13 
REMARK    5  A    between atoms: C11_15  and  O5_43 
REMARK    6  A    between atoms: C13_17  and  C18_23 
REMARK    7  A    between atoms: C14_19  and  C15_20 
REMARK    8  A    between atoms: C15_20  and  C16_21 
REMARK    9  A    between atoms: C16_21  and  C17_22 
REMARK   10  A    between atoms: C17_22  and  O4_29 
REMARK   11  A    between atoms: C18_23  and  C19_24 
REMARK   12  A    between atoms: C19_24  and  C20_25 
REMARK   13  A    between atoms: C20_25  and  C21_26 
REMARK   14  A    between atoms: C21_26  and  O3_27 
REMARK   15  A    between atoms: O3_27  and  C22_28 
REMARK   16  A    between atoms: C22_28  and  C30_37 
REMARK   17  A    between atoms: O4_29  and  C23_30 
REMARK   18  A    between atoms: C23_30  and  C24_31 
REMARK   19  A    between atoms: O5_43  and  C36_44 
REMARK   20  A    between atoms: C36_44  and  C37_45 
REMARK   21  A    between atoms: C37_45  and  C38_46 
ROOT
HETATM    1  C1  UNK   900      30.399  25.481  23.984  1.00  0.00     0.098 A 
HETATM    2  C2  UNK   900      31.028  26.635  24.405  1.00  0.00     0.139 A 
HETATM    3  N1  UNK   900      31.701  27.065  23.304  1.00  0.00    -0.281 N 
HETATM    4  N2  UNK   900      31.580  26.198  22.286  1.00  0.00     0.004 NA
HETATM    5  N3  UNK   900      30.777  25.222  22.690  1.00  0.00    -0.160 NA
ENDROOT
BRANCH   1   6
HETATM    6  C3  UNK   900      29.409  24.645  24.733  1.00  0.00     0.176 C 
HETATM    7  C7  UNK   900      28.423  25.472  25.564  1.00  0.00     0.039 C 
HETATM    8  C6  UNK   900      27.506  24.567  26.381  1.00  0.00     0.005 C 
HETATM    9  C5  UNK   900      28.323  23.567  27.194  1.00  0.00     0.032 C 
HETATM   10  C4  UNK   900      29.309  22.820  26.297  1.00  0.00     0.122 C 
HETATM   11  O1  UNK   900      30.129  23.755  25.599  1.00  0.00    -0.374 OA
BRANCH  10  12
HETATM   12  C14 UNK   900      30.247  21.932  27.128  1.00  0.00     0.032 C 
BRANCH  12  13
HETATM   13  C15 UNK   900      30.843  22.692  28.322  1.00  0.00     0.004 C 
BRANCH  13  14
HETATM   14  C16 UNK   900      32.287  22.282  28.641  1.00  0.00     0.026 C 
BRANCH  14  15
HETATM   15  C17 UNK   900      33.056  23.309  29.475  1.00  0.00     0.168 C 
BRANCH  15  16
HETATM   16  O4  UNK   900      33.056  24.563  28.792  1.00  0.00    -0.387 OA
BRANCH  16  17
HETATM   17  C23 UNK   900      32.725  25.664  29.645  1.00  0.00     0.206 C 
BRANCH  17  18
HETATM   18  C24 UNK   900      31.365  26.251  29.345  1.00  0.00    -0.035 A 
HETATM   19  C29 UNK   900      30.235  25.880  30.086  1.00  0.00     0.009 A 
HETATM   20  C28 UNK   900      28.979  26.406  29.786  1.00  0.00     0.001 A 
HETATM   21  C27 UNK   900      28.835  27.308  28.736  1.00  0.00     0.000 A 
HETATM   22  C26 UNK   900      29.947  27.675  27.980  1.00  0.00     0.001 A 
HETATM   23  C25 UNK   900      31.204  27.144  28.278  1.00  0.00     0.009 A 
ENDBRANCH  17  18
ENDBRANCH  16  17
ENDBRANCH  15  16
ENDBRANCH  14  15
ENDBRANCH  13  14
ENDBRANCH  12  13
ENDBRANCH  10  12
ENDBRANCH   1   6
BRANCH   3  24
HETATM   24  C8  UNK   900      32.413  28.312  23.149  1.00  0.00     0.178 C 
BRANCH  24  25
HETATM   25  C9  UNK   900      33.310  28.618  24.353  1.00  0.00     0.143 C 
HETATM   26  O2  UNK   900      34.629  28.900  23.857  1.00  0.00    -0.379 OA
HETATM   27  C13 UNK   900      35.574  29.086  24.920  1.00  0.00     0.124 C 
HETATM   28  C12 UNK   900      35.185  30.329  25.714  1.00  0.00     0.064 C 
HETATM   29  C11 UNK   900      33.779  30.165  26.287  1.00  0.00     0.126 C 
HETATM   30  C10 UNK   900      32.796  29.806  25.170  1.00  0.00     0.065 C 
BRANCH  27  31
HETATM   31  C18 UNK   900      36.975  29.231  24.317  1.00  0.00     0.032 C 
BRANCH  31  32
HETATM   32  C19 UNK   900      38.105  28.677  25.195  1.00  0.00     0.004 C 
BRANCH  32  33
HETATM   33  C20 UNK   900      39.117  27.750  24.511  1.00  0.00     0.026 C 
BRANCH  33  34
HETATM   34  C21 UNK   900      38.488  26.644  23.667  1.00  0.00     0.168 C 
BRANCH  34  35
HETATM   35  O3  UNK   900      39.103  26.600  22.382  1.00  0.00    -0.387 OA
BRANCH  35  36
HETATM   36  C22 UNK   900      39.562  27.890  21.975  1.00  0.00     0.206 C 
BRANCH  36  37
HETATM   37  C30 UNK   900      38.853  28.308  20.712  1.00  0.00    -0.035 A 
HETATM   38  C35 UNK   900      39.581  28.657  19.566  1.00  0.00     0.009 A 
HETATM   39  C34 UNK   900      38.928  29.078  18.406  1.00  0.00     0.001 A 
HETATM   40  C33 UNK   900      37.537  29.169  18.384  1.00  0.00     0.000 A 
HETATM   41  C32 UNK   900      36.802  28.838  19.521  1.00  0.00     0.001 A 
HETATM   42  C31 UNK   900      37.456  28.411  20.680  1.00  0.00     0.009 A 
ENDBRANCH  36  37
ENDBRANCH  35  36
ENDBRANCH  34  35
ENDBRANCH  33  34
ENDBRANCH  32  33
ENDBRANCH  31  32
ENDBRANCH  27  31
BRANCH  29  43
HETATM   43  O5  UNK   900      33.421  31.408  26.903  1.00  0.00    -0.386 OA
BRANCH  43  44
HETATM   44  C36 UNK   900      34.428  32.410  26.770  1.00  0.00     0.168 C 
BRANCH  44  45
HETATM   45  C37 UNK   900      33.748  33.722  26.396  1.00  0.00     0.026 C 
BRANCH  45  46
HETATM   46  C38 UNK   900      32.928  33.584  25.117  1.00  0.00    -0.002 C 
HETATM   47  C39 UNK   900      33.820  33.435  23.896  1.00  0.00     0.005 C 
ENDBRANCH  45  46
ENDBRANCH  44  45
ENDBRANCH  43  44
ENDBRANCH  29  43
ENDBRANCH  24  25
ENDBRANCH   3  24
TORSDOF 21
ENDMDL
MODEL 4
REMARK VINA RESULT:      -8.9      2.925      5.317
REMARK  21 active torsions:
REMARK  status: ('A' for Active; 'I' for Inactive)
REMARK    1  A    between atoms: C1_1  and  C3_6 
REMARK    2  A    between atoms: N1_3  and  C8_12 
REMARK    3  A    between atoms: C4_8  and  C14_19 
REMARK    4  A    between atoms: C8_12  and  C9_13 
REMARK    5  A    between atoms: C11_15  and  O5_43 
REMARK    6  A    between atoms: C13_17  and  C18_23 
REMARK    7  A    between atoms: C14_19  and  C15_20 
REMARK    8  A    between atoms: C15_20  and  C16_21 
REMARK    9  A    between atoms: C16_21  and  C17_22 
REMARK   10  A    between atoms: C17_22  and  O4_29 
REMARK   11  A    between atoms: C18_23  and  C19_24 
REMARK   12  A    between atoms: C19_24  and  C20_25 
REMARK   13  A    between atoms: C20_25  and  C21_26 
REMARK   14  A    between atoms: C21_26  and  O3_27 
REMARK   15  A    between atoms: O3_27  and  C22_28 
REMARK   16  A    between atoms: C22_28  and  C30_37 
REMARK   17  A    between atoms: O4_29  and  C23_30 
REMARK   18  A    between atoms: C23_30  and  C24_31 
REMARK   19  A    between atoms: O5_43  and  C36_44 
REMARK   20  A    between atoms: C36_44  and  C37_45 
REMARK   21  A    between atoms: C37_45  and  C38_46 
ROOT
HETATM    1  C1  UNK   900      30.193  25.368  23.916  1.00  0.00     0.098 A 
HETATM    2  C2  UNK   900      30.812  26.534  24.318  1.00  0.00     0.139 A 
HETATM    3  N1  UNK   900      31.494  26.944  23.215  1.00  0.00    -0.281 N 
HETATM    4  N2  UNK   900      31.389  26.054  22.215  1.00  0.00     0.004 NA
HETATM    5  N3  UNK   900      30.587  25.082  22.632  1.00  0.00    -0.160 NA
ENDROOT
BRANCH   1   6
HETATM    6  C3  UNK   900      29.201  24.543  24.673  1.00  0.00     0.176 C 
HETATM    7  C7  UNK   900      28.168  25.383  25.431  1.00  0.00     0.039 C 
HETATM    8  C6  UNK   900      27.247  24.493  26.262  1.00  0.00     0.005 C 
HETATM    9  C5  UNK   900      28.061  23.555  27.148  1.00  0.00     0.032 C 
HETATM   10  C4  UNK   900      29.094  22.792  26.319  1.00  0.00     0.122 C 
HETATM   11  O1  UNK   900      29.914  23.714  25.602  1.00  0.00    -0.374 OA
BRANCH  10  12
HETATM   12  C14 UNK   900      30.026  21.969  27.221  1.00  0.00     0.032 C 
BRANCH  12  13
HETATM   13  C15 UNK   900      30.655  22.829  28.327  1.00  0.00     0.004 C 
BRANCH  13  14
HETATM   14  C16 UNK   900      32.161  22.587  28.500  1.00  0.00     0.026 C 
BRANCH  14  15
HETATM   15  C17 UNK   900      32.828  23.518  29.514  1.00  0.00     0.168 C 
BRANCH  15  16
HETATM   16  O4  UNK   900      33.135  24.759  28.880  1.00  0.00    -0.387 OA
BRANCH  16  17
HETATM   17  C23 UNK   900      32.707  25.895  29.638  1.00  0.00     0.206 C 
BRANCH  17  18
HETATM   18  C24 UNK   900      31.310  26.346  29.282  1.00  0.00    -0.035 A 
HETATM   19  C29 UNK   900      31.061  27.088  28.120  1.00  0.00     0.009 A 
HETATM   20  C28 UNK   900      29.772  27.524  27.811  1.00  0.00     0.001 A 
HETATM   21  C27 UNK   900      28.714  27.226  28.666  1.00  0.00     0.000 A 
HETATM   22  C26 UNK   900      28.948  26.502  29.834  1.00  0.00     0.001 A 
HETATM   23  C25 UNK   900      30.240  26.071  30.144  1.00  0.00     0.009 A 
ENDBRANCH  17  18
ENDBRANCH  16  17
ENDBRANCH  15  16
ENDBRANCH  14  15
ENDBRANCH  13  14
ENDBRANCH  12  13
ENDBRANCH  10  12
ENDBRANCH   1   6
BRANCH   3  24
HETATM   24  C8  UNK   900      32.201  28.191  23.040  1.00  0.00     0.178 C 
BRANCH  24  25
HETATM   25  C9  UNK   900      33.535  28.209  23.793  1.00  0.00     0.143 C 
HETATM   26  O2  UNK   900      34.573  27.878  22.855  1.00  0.00    -0.379 OA
HETATM   27  C13 UNK   900      35.852  27.755  23.492  1.00  0.00     0.124 C 
HETATM   28  C12 UNK   900      36.258  29.114  24.052  1.00  0.00     0.064 C 
HETATM   29  C11 UNK   900      35.216  29.596  25.061  1.00  0.00     0.126 C 
HETATM   30  C10 UNK   900      33.822  29.572  24.427  1.00  0.00     0.065 C 
BRANCH  27  31
HETATM   31  C18 UNK   900      36.871  27.255  22.463  1.00  0.00     0.032 C 
BRANCH  31  32
HETATM   32  C19 UNK   900      37.713  28.360  21.813  1.00  0.00     0.004 C 
BRANCH  32  33
HETATM   33  C20 UNK   900      39.236  28.207  21.901  1.00  0.00     0.026 C 
BRANCH  33  34
HETATM   34  C21 UNK   900      39.954  28.263  20.555  1.00  0.00     0.168 C 
BRANCH  34  35
HETATM   35  O3  UNK   900      39.003  28.339  19.496  1.00  0.00    -0.387 OA
BRANCH  35  36
HETATM   36  C22 UNK   900      39.352  29.349  18.549  1.00  0.00     0.206 C 
BRANCH  36  37
HETATM   37  C30 UNK   900      38.100  29.967  17.980  1.00  0.00    -0.035 A 
HETATM   38  C35 UNK   900      38.137  31.234  17.381  1.00  0.00     0.009 A 
HETATM   39  C34 UNK   900      36.973  31.824  16.885  1.00  0.00     0.001 A 
HETATM   40  C33 UNK   900      35.753  31.157  16.997  1.00  0.00     0.000 A 
HETATM   41  C32 UNK   900      35.700  29.903  17.603  1.00  0.00     0.001 A 
HETATM   42  C31 UNK   900      36.866  29.311  18.093  1.00  0.00     0.009 A 
ENDBRANCH  36  37
ENDBRANCH  35  36
ENDBRANCH  34  35
ENDBRANCH  33  34
ENDBRANCH  32  33
ENDBRANCH  31  32
ENDBRANCH  27  31
BRANCH  29  43
HETATM   43  O5  UNK   900      35.579  30.926  25.449  1.00  0.00    -0.386 OA
BRANCH  43  44
HETATM   44  C36 UNK   900      35.080  31.290  26.735  1.00  0.00     0.168 C 
BRANCH  44  45
HETATM   45  C37 UNK   900      34.861  32.799  26.750  1.00  0.00     0.026 C 
BRANCH  45  46
HETATM   46  C38 UNK   900      34.038  33.259  25.551  1.00  0.00    -0.002 C 
HETATM   47  C39 UNK   900      33.798  34.759  25.583  1.00  0.00     0.005 C 
ENDBRANCH  45  46
ENDBRANCH  44  45
ENDBRANCH  43  44
ENDBRANCH  29  43
ENDBRANCH  24  25
ENDBRANCH   3  24
TORSDOF 21
ENDMDL
MODEL 5
REMARK VINA RESULT:      -8.8      1.739      4.706
REMARK  21 active torsions:
REMARK  status: ('A' for Active; 'I' for Inactive)
REMARK    1  A    between atoms: C1_1  and  C3_6 
REMARK    2  A    between atoms: N1_3  and  C8_12 
REMARK    3  A    between atoms: C4_8  and  C14_19 
REMARK    4  A    between atoms: C8_12  and  C9_13 
REMARK    5  A    between atoms: C11_15  and  O5_43 
REMARK    6  A    between atoms: C13_17  and  C18_23 
REMARK    7  A    between atoms: C14_19  and  C15_20 
REMARK    8  A    between atoms: C15_20  and  C16_21 
REMARK    9  A    between atoms: C16_21  and  C17_22 
REMARK   10  A    between atoms: C17_22  and  O4_29 
REMARK   11  A    between atoms: C18_23  and  C19_24 
REMARK   12  A    between atoms: C19_24  and  C20_25 
REMARK   13  A    between atoms: C20_25  and  C21_26 
REMARK   14  A    between atoms: C21_26  and  O3_27 
REMARK   15  A    between atoms: O3_27  and  C22_28 
REMARK   16  A    between atoms: C22_28  and  C30_37 
REMARK   17  A    between atoms: O4_29  and  C23_30 
REMARK   18  A    between atoms: C23_30  and  C24_31 
REMARK   19  A    between atoms: O5_43  and  C36_44 
REMARK   20  A    between atoms: C36_44  and  C37_45 
REMARK   21  A    between atoms: C37_45  and  C38_46 
ROOT
HETATM    1  C1  UNK   900      30.163  25.646  23.915  1.00  0.00     0.098 A 
HETATM    2  C2  UNK   900      30.780  26.842  24.218  1.00  0.00     0.139 A 
HETATM    3  N1  UNK   900      31.601  27.068  23.158  1.00  0.00    -0.281 N 
HETATM    4  N2  UNK   900      31.575  26.045  22.290  1.00  0.00     0.004 NA
HETATM    5  N3  UNK   900      30.689  25.165  22.741  1.00  0.00    -0.160 NA
ENDROOT
BRANCH   1   6
HETATM    6  C3  UNK   900      29.054  24.966  24.656  1.00  0.00     0.176 C 
HETATM    7  C7  UNK   900      28.228  25.923  25.521  1.00  0.00     0.039 C 
HETATM    8  C6  UNK   900      27.182  25.161  26.329  1.00  0.00     0.005 C 
HETATM    9  C5  UNK   900      27.828  24.017  27.104  1.00  0.00     0.032 C 
HETATM   10  C4  UNK   900      28.667  23.141  26.174  1.00  0.00     0.122 C 
HETATM   11  O1  UNK   900      29.625  23.945  25.488  1.00  0.00    -0.374 OA
BRANCH  10  12
HETATM   12  C14 UNK   900      29.451  22.087  26.970  1.00  0.00     0.032 C 
BRANCH  12  13
HETATM   13  C15 UNK   900      30.938  22.451  27.088  1.00  0.00     0.004 C 
BRANCH  13  14
HETATM   14  C16 UNK   900      31.626  21.802  28.297  1.00  0.00     0.026 C 
BRANCH  14  15
HETATM   15  C17 UNK   900      32.883  22.537  28.766  1.00  0.00     0.168 C 
BRANCH  15  16
HETATM   16  O4  UNK   900      32.629  23.942  28.779  1.00  0.00    -0.387 OA
BRANCH  16  17
HETATM   17  C23 UNK   900      31.648  24.323  29.749  1.00  0.00     0.206 C 
BRANCH  17  18
HETATM   18  C24 UNK   900      30.815  25.504  29.309  1.00  0.00    -0.035 A 
HETATM   19  C29 UNK   900      29.562  25.762  29.879  1.00  0.00     0.009 A 
HETATM   20  C28 UNK   900      28.787  26.839  29.449  1.00  0.00     0.001 A 
HETATM   21  C27 UNK   900      29.255  27.671  28.435  1.00  0.00     0.000 A 
HETATM   22  C26 UNK   900      30.493  27.418  27.846  1.00  0.00     0.001 A 
HETATM   23  C25 UNK   900      31.265  26.336  28.275  1.00  0.00     0.009 A 
ENDBRANCH  17  18
ENDBRANCH  16  17
ENDBRANCH  15  16
ENDBRANCH  14  15
ENDBRANCH  13  14
ENDBRANCH  12  13
ENDBRANCH  10  12
ENDBRANCH   1   6
BRANCH   3  24
HETATM   24  C8  UNK   900      32.377  28.258  22.894  1.00  0.00     0.178 C 
BRANCH  24  25
HETATM   25  C9  UNK   900      33.507  28.448  23.911  1.00  0.00     0.143 C 
HETATM   26  O2  UNK   900      34.735  28.601  23.179  1.00  0.00    -0.379 OA
HETATM   27  C13 UNK   900      35.873  28.669  24.048  1.00  0.00     0.124 C 
HETATM   28  C12 UNK   900      35.770  29.931  24.898  1.00  0.00     0.064 C 
HETATM   29  C11 UNK   900      34.484  29.904  25.723  1.00  0.00     0.126 C 
HETATM   30  C10 UNK   900      33.280  29.668  24.806  1.00  0.00     0.065 C 
BRANCH  27  31
HETATM   31  C18 UNK   900      37.147  28.678  23.197  1.00  0.00     0.032 C 
BRANCH  31  32
HETATM   32  C19 UNK   900      37.624  27.290  22.752  1.00  0.00     0.004 C 
BRANCH  32  33
HETATM   33  C20 UNK   900      38.551  26.539  23.715  1.00  0.00     0.026 C 
BRANCH  33  34
HETATM   34  C21 UNK   900      39.257  27.430  24.734  1.00  0.00     0.168 C 
BRANCH  34  35
HETATM   35  O3  UNK   900      38.685  27.245  26.026  1.00  0.00    -0.387 OA
BRANCH  35  36
HETATM   36  C22 UNK   900      37.914  26.044  26.091  1.00  0.00     0.206 C 
BRANCH  36  37
HETATM   37  C30 UNK   900      36.936  26.130  27.236  1.00  0.00    -0.035 A 
HETATM   38  C35 UNK   900      36.766  25.050  28.114  1.00  0.00     0.009 A 
HETATM   39  C34 UNK   900      35.836  25.114  29.152  1.00  0.00     0.001 A 
HETATM   40  C33 UNK   900      35.052  26.255  29.315  1.00  0.00     0.000 A 
HETATM   41  C32 UNK   900      35.201  27.331  28.442  1.00  0.00     0.001 A 
HETATM   42  C31 UNK   900      36.137  27.268  27.406  1.00  0.00     0.009 A 
ENDBRANCH  36  37
ENDBRANCH  35  36
ENDBRANCH  34  35
ENDBRANCH  33  34
ENDBRANCH  32  33
ENDBRANCH  31  32
ENDBRANCH  27  31
BRANCH  29  43
HETATM   43  O5  UNK   900      34.378  31.166  26.392  1.00  0.00    -0.386 OA
BRANCH  43  44
HETATM   44  C36 UNK   900      34.556  31.067  27.804  1.00  0.00     0.168 C 
BRANCH  44  45
HETATM   45  C37 UNK   900      33.304  31.612  28.481  1.00  0.00     0.026 C 
BRANCH  45  46
HETATM   46  C38 UNK   900      32.254  32.038  27.460  1.00  0.00    -0.002 C 
HETATM   47  C39 UNK   900      31.047  31.114  27.485  1.00  0.00     0.005 C 
ENDBRANCH  45  46
ENDBRANCH  44  45
ENDBRANCH  43  44
ENDBRANCH  29  43
ENDBRANCH  24  25
ENDBRANCH   3  24
TORSDOF 21
ENDMDL
MODEL 6
REMARK VINA RESULT:      -8.8      1.326      3.216
REMARK  21 active torsions:
REMARK  status: ('A' for Active; 'I' for Inactive)
REMARK    1  A    between atoms: C1_1  and  C3_6 
REMARK    2  A    between atoms: N1_3  and  C8_12 
REMARK    3  A    between atoms: C4_8  and  C14_19 
REMARK    4  A    between atoms: C8_12  and  C9_13 
REMARK    5  A    between atoms: C11_15  and  O5_43 
REMARK    6  A    between atoms: C13_17  and  C18_23 
REMARK    7  A    between atoms: C14_19  and  C15_20 
REMARK    8  A    between atoms: C15_20  and  C16_21 
REMARK    9  A    between atoms: C16_21  and  C17_22 
REMARK   10  A    between atoms: C17_22  and  O4_29 
REMARK   11  A    between atoms: C18_23  and  C19_24 
REMARK   12  A    between atoms: C19_24  and  C20_25 
REMARK   13  A    between atoms: C20_25  and  C21_26 
REMARK   14  A    between atoms: C21_26  and  O3_27 
REMARK   15  A    between atoms: O3_27  and  C22_28 
REMARK   16  A    between atoms: C22_28  and  C30_37 
REMARK   17  A    between atoms: O4_29  and  C23_30 
REMARK   18  A    between atoms: C23_30  and  C24_31 
REMARK   19  A    between atoms: O5_43  and  C36_44 
REMARK   20  A    between atoms: C36_44  and  C37_45 
REMARK   21  A    between atoms: C37_45  and  C38_46 
ROOT
HETATM    1  C1  UNK   900      30.581  26.235  23.881  1.00  0.00     0.098 A 
HETATM    2  C2  UNK   900      31.664  26.668  24.618  1.00  0.00     0.139 A 
HETATM    3  N1  UNK   900      32.227  27.633  23.843  1.00  0.00    -0.281 N 
HETATM    4  N2  UNK   900      31.601  27.739  22.661  1.00  0.00     0.004 NA
HETATM    5  N3  UNK   900      30.583  26.888  22.673  1.00  0.00    -0.160 NA
ENDROOT
BRANCH   1   6
HETATM    6  C3  UNK   900      29.512  25.272  24.292  1.00  0.00     0.176 C 
HETATM    7  C7  UNK   900      28.260  25.959  24.848  1.00  0.00     0.039 C 
HETATM    8  C6  UNK   900      27.249  24.929  25.343  1.00  0.00     0.005 C 
HETATM    9  C5  UNK   900      27.906  23.950  26.311  1.00  0.00     0.032 C 
HETATM   10  C4  UNK   900      29.168  23.348  25.694  1.00  0.00     0.122 C 
HETATM   11  O1  UNK   900      30.052  24.391  25.288  1.00  0.00    -0.374 OA
BRANCH  10  12
HETATM   12  C14 UNK   900      29.925  22.489  26.718  1.00  0.00     0.032 C 
BRANCH  12  13
HETATM   13  C15 UNK   900      31.134  23.233  27.305  1.00  0.00     0.004 C 
BRANCH  13  14
HETATM   14  C16 UNK   900      31.693  22.575  28.574  1.00  0.00     0.026 C 
BRANCH  14  15
HETATM   15  C17 UNK   900      32.767  23.403  29.282  1.00  0.00     0.168 C 
BRANCH  15  16
HETATM   16  O4  UNK   900      32.683  24.757  28.840  1.00  0.00    -0.387 OA
BRANCH  16  17
HETATM   17  C23 UNK   900      32.039  25.616  29.787  1.00  0.00     0.206 C 
BRANCH  17  18
HETATM   18  C24 UNK   900      30.719  26.156  29.288  1.00  0.00    -0.035 A 
HETATM   19  C29 UNK   900      29.504  25.719  29.831  1.00  0.00     0.009 A 
HETATM   20  C28 UNK   900      28.289  26.203  29.347  1.00  0.00     0.001 A 
HETATM   21  C27 UNK   900      28.273  27.128  28.307  1.00  0.00     0.000 A 
HETATM   22  C26 UNK   900      29.474  27.560  27.745  1.00  0.00     0.001 A 
HETATM   23  C25 UNK   900      30.690  27.072  28.228  1.00  0.00     0.009 A 
ENDBRANCH  17  18
ENDBRANCH  16  17
ENDBRANCH  15  16
ENDBRANCH  14  15
ENDBRANCH  13  14
ENDBRANCH  12  13
ENDBRANCH  10  12
ENDBRANCH   1   6
BRANCH   3  24
HETATM   24  C8  UNK   900      33.312  28.518  24.202  1.00  0.00     0.178 C 
BRANCH  24  25
HETATM   25  C9  UNK   900      34.136  27.976  25.374  1.00  0.00     0.143 C 
HETATM   26  O2  UNK   900      35.484  28.448  25.218  1.00  0.00    -0.379 OA
HETATM   27  C13 UNK   900      36.364  27.897  26.207  1.00  0.00     0.124 C 
HETATM   28  C12 UNK   900      35.935  28.399  27.583  1.00  0.00     0.064 C 
HETATM   29  C11 UNK   900      34.496  27.975  27.869  1.00  0.00     0.126 C 
HETATM   30  C10 UNK   900      33.580  28.425  26.727  1.00  0.00     0.065 C 
BRANCH  27  31
HETATM   31  C18 UNK   900      37.800  28.324  25.886  1.00  0.00     0.032 C 
BRANCH  31  32
HETATM   32  C19 UNK   900      37.913  29.644  25.114  1.00  0.00     0.004 C 
BRANCH  32  33
HETATM   33  C20 UNK   900      38.823  30.720  25.719  1.00  0.00     0.026 C 
BRANCH  33  34
HETATM   34  C21 UNK   900      38.339  31.274  27.056  1.00  0.00     0.168 C 
BRANCH  34  35
HETATM   35  O3  UNK   900      36.915  31.229  27.119  1.00  0.00    -0.387 OA
BRANCH  35  36
HETATM   36  C22 UNK   900      36.362  32.514  27.408  1.00  0.00     0.206 C 
BRANCH  36  37
HETATM   37  C30 UNK   900      35.191  32.780  26.495  1.00  0.00    -0.035 A 
HETATM   38  C35 UNK   900      34.781  31.820  25.560  1.00  0.00     0.009 A 
HETATM   39  C34 UNK   900      33.720  32.079  24.690  1.00  0.00     0.001 A 
HETATM   40  C33 UNK   900      33.066  33.309  24.736  1.00  0.00     0.000 A 
HETATM   41  C32 UNK   900      33.473  34.278  25.651  1.00  0.00     0.001 A 
HETATM   42  C31 UNK   900      34.531  34.016  26.526  1.00  0.00     0.009 A 
ENDBRANCH  36  37
ENDBRANCH  35  36
ENDBRANCH  34  35
ENDBRANCH  33  34
ENDBRANCH  32  33
ENDBRANCH  31  32
ENDBRANCH  27  31
BRANCH  29  43
HETATM   43  O5  UNK   900      34.109  28.584  29.106  1.00  0.00    -0.386 OA
BRANCH  43  44
HETATM   44  C36 UNK   900      33.082  29.563  28.951  1.00  0.00     0.168 C 
BRANCH  44  45
HETATM   45  C37 UNK   900      33.657  30.921  29.338  1.00  0.00     0.026 C 
BRANCH  45  46
HETATM   46  C38 UNK   900      32.740  32.062  28.908  1.00  0.00    -0.002 C 
HETATM   47  C39 UNK   900      31.770  31.619  27.825  1.00  0.00     0.005 C 
ENDBRANCH  45  46
ENDBRANCH  44  45
ENDBRANCH  43  44
ENDBRANCH  29  43
ENDBRANCH  24  25
ENDBRANCH   3  24
TORSDOF 21
ENDMDL
MODEL 7
REMARK VINA RESULT:      -8.8      3.244      7.905
REMARK  21 active torsions:
REMARK  status: ('A' for Active; 'I' for Inactive)
REMARK    1  A    between atoms: C1_1  and  C3_6 
REMARK    2  A    between atoms: N1_3  and  C8_12 
REMARK    3  A    between atoms: C4_8  and  C14_19 
REMARK    4  A    between atoms: C8_12  and  C9_13 
REMARK    5  A    between atoms: C11_15  and  O5_43 
REMARK    6  A    between atoms: C13_17  and  C18_23 
REMARK    7  A    between atoms: C14_19  and  C15_20 
REMARK    8  A    between atoms: C15_20  and  C16_21 
REMARK    9  A    between atoms: C16_21  and  C17_22 
REMARK   10  A    between atoms: C17_22  and  O4_29 
REMARK   11  A    between atoms: C18_23  and  C19_24 
REMARK   12  A    between atoms: C19_24  and  C20_25 
REMARK   13  A    between atoms: C20_25  and  C21_26 
REMARK   14  A    between atoms: C21_26  and  O3_27 
REMARK   15  A    between atoms: O3_27  and  C22_28 
REMARK   16  A    between atoms: C22_28  and  C30_37 
REMARK   17  A    between atoms: O4_29  and  C23_30 
REMARK   18  A    between atoms: C23_30  and  C24_31 
REMARK   19  A    between atoms: O5_43  and  C36_44 
REMARK   20  A    between atoms: C36_44  and  C37_45 
REMARK   21  A    between atoms: C37_45  and  C38_46 
ROOT
HETATM    1  C1  UNK   900      37.257  32.135  27.958  1.00  0.00     0.098 A 
HETATM    2  C2  UNK   900      37.489  31.429  26.795  1.00  0.00     0.139 A 
HETATM    3  N1  UNK   900      38.840  31.289  26.756  1.00  0.00    -0.281 N 
HETATM    4  N2  UNK   900      39.430  31.939  27.772  1.00  0.00     0.004 NA
HETATM    5  N3  UNK   900      38.467  32.459  28.523  1.00  0.00    -0.160 NA
ENDROOT
BRANCH   1   6
HETATM    6  C3  UNK   900      35.942  32.466  28.590  1.00  0.00     0.176 C 
HETATM    7  C7  UNK   900      35.060  31.238  28.834  1.00  0.00     0.039 C 
HETATM    8  C6  UNK   900      33.697  31.647  29.384  1.00  0.00     0.005 C 
HETATM    9  C5  UNK   900      33.056  32.710  28.497  1.00  0.00     0.032 C 
HETATM   10  C4  UNK   900      34.019  33.875  28.270  1.00  0.00     0.122 C 
HETATM   11  O1  UNK   900      35.248  33.388  27.735  1.00  0.00    -0.374 OA
BRANCH  10  12
HETATM   12  C14 UNK   900      33.447  34.870  27.250  1.00  0.00     0.032 C 
BRANCH  12  13
HETATM   13  C15 UNK   900      33.939  34.574  25.825  1.00  0.00     0.004 C 
BRANCH  13  14
HETATM   14  C16 UNK   900      32.978  33.683  25.026  1.00  0.00     0.026 C 
BRANCH  14  15
HETATM   15  C17 UNK   900      33.679  32.647  24.145  1.00  0.00     0.168 C 
BRANCH  15  16
HETATM   16  O4  UNK   900      32.907  31.446  24.129  1.00  0.00    -0.387 OA
BRANCH  16  17
HETATM   17  C23 UNK   900      33.464  30.412  24.948  1.00  0.00     0.206 C 
BRANCH  17  18
HETATM   18  C24 UNK   900      32.413  29.502  25.540  1.00  0.00    -0.035 A 
HETATM   19  C29 UNK   900      31.657  29.893  26.652  1.00  0.00     0.009 A 
HETATM   20  C28 UNK   900      30.707  29.036  27.209  1.00  0.00     0.001 A 
HETATM   21  C27 UNK   900      30.505  27.772  26.662  1.00  0.00     0.000 A 
HETATM   22  C26 UNK   900      31.261  27.362  25.564  1.00  0.00     0.001 A 
HETATM   23  C25 UNK   900      32.215  28.219  25.011  1.00  0.00     0.009 A 
ENDBRANCH  17  18
ENDBRANCH  16  17
ENDBRANCH  15  16
ENDBRANCH  14  15
ENDBRANCH  13  14
ENDBRANCH  12  13
ENDBRANCH  10  12
ENDBRANCH   1   6
BRANCH   3  24
HETATM   24  C8  UNK   900      39.610  30.503  25.819  1.00  0.00     0.178 C 
BRANCH  24  25
HETATM   25  C9  UNK   900      39.062  29.080  25.674  1.00  0.00     0.143 C 
HETATM   26  O2  UNK   900      37.659  29.116  25.983  1.00  0.00    -0.379 OA
HETATM   27  C13 UNK   900      37.077  27.804  25.988  1.00  0.00     0.124 C 
HETATM   28  C12 UNK   900      37.147  27.228  24.577  1.00  0.00     0.064 C 
HETATM   29  C11 UNK   900      38.602  27.152  24.115  1.00  0.00     0.126 C 
HETATM   30  C10 UNK   900      39.271  28.522  24.264  1.00  0.00     0.065 C 
BRANCH  27  31
HETATM   31  C18 UNK   900      35.627  27.908  26.471  1.00  0.00     0.032 C 
BRANCH  31  32
HETATM   32  C19 UNK   900      35.420  27.542  27.946  1.00  0.00     0.004 C 
BRANCH  32  33
HETATM   33  C20 UNK   900      33.978  27.569  28.467  1.00  0.00     0.026 C 
BRANCH  33  34
HETATM   34  C21 UNK   900      33.784  26.892  29.821  1.00  0.00     0.168 C 
BRANCH  34  35
HETATM   35  O3  UNK   900      32.458  27.112  30.293  1.00  0.00    -0.387 OA
BRANCH  35  36
HETATM   36  C22 UNK   900      31.845  25.895  30.722  1.00  0.00     0.206 C 
BRANCH  36  37
HETATM   37  C30 UNK   900      30.592  25.647  29.921  1.00  0.00    -0.035 A 
HETATM   38  C35 UNK   900      30.559  24.651  28.935  1.00  0.00     0.009 A 
HETATM   39  C34 UNK   900      29.412  24.442  28.169  1.00  0.00     0.001 A 
HETATM   40  C33 UNK   900      28.286  25.241  28.369  1.00  0.00     0.000 A 
HETATM   41  C32 UNK   900      28.310  26.244  29.336  1.00  0.00     0.001 A 
HETATM   42  C31 UNK   900      29.457  26.448  30.107  1.00  0.00     0.009 A 
ENDBRANCH  36  37
ENDBRANCH  35  36
ENDBRANCH  34  35
ENDBRANCH  33  34
ENDBRANCH  32  33
ENDBRANCH  31  32
ENDBRANCH  27  31
BRANCH  29  43
HETATM   43  O5  UNK   900      38.594  26.733  22.746  1.00  0.00    -0.386 OA
BRANCH  43  44
HETATM   44  C36 UNK   900      37.467  27.219  22.018  1.00  0.00     0.168 C 
BRANCH  44  45
HETATM   45  C37 UNK   900      37.944  28.326  21.085  1.00  0.00     0.026 C 
BRANCH  45  46
HETATM   46  C38 UNK   900      36.942  28.587  19.964  1.00  0.00    -0.002 C 
HETATM   47  C39 UNK   900      37.642  28.910  18.655  1.00  0.00     0.005 C 
ENDBRANCH  45  46
ENDBRANCH  44  45
ENDBRANCH  43  44
ENDBRANCH  29  43
ENDBRANCH  24  25
ENDBRANCH   3  24
TORSDOF 21
ENDMDL
MODEL 8
REMARK VINA RESULT:      -8.8      4.407      9.013
REMARK  21 active torsions:
REMARK  status: ('A' for Active; 'I' for Inactive)
REMARK    1  A    between atoms: C1_1  and  C3_6 
REMARK    2  A    between atoms: N1_3  and  C8_12 
REMARK    3  A    between atoms: C4_8  and  C14_19 
REMARK    4  A    between atoms: C8_12  and  C9_13 
REMARK    5  A    between atoms: C11_15  and  O5_43 
REMARK    6  A    between atoms: C13_17  and  C18_23 
REMARK    7  A    between atoms: C14_19  and  C15_20 
REMARK    8  A    between atoms: C15_20  and  C16_21 
REMARK    9  A    between atoms: C16_21  and  C17_22 
REMARK   10  A    between atoms: C17_22  and  O4_29 
REMARK   11  A    between atoms: C18_23  and  C19_24 
REMARK   12  A    between atoms: C19_24  and  C20_25 
REMARK   13  A    between atoms: C20_25  and  C21_26 
REMARK   14  A    between atoms: C21_26  and  O3_27 
REMARK   15  A    between atoms: O3_27  and  C22_28 
REMARK   16  A    between atoms: C22_28  and  C30_37 
REMARK   17  A    between atoms: O4_29  and  C23_30 
REMARK   18  A    between atoms: C23_30  and  C24_31 
REMARK   19  A    between atoms: O5_43  and  C36_44 
REMARK   20  A    between atoms: C36_44  and  C37_45 
REMARK   21  A    between atoms: C37_45  and  C38_46 
ROOT
HETATM    1  C1  UNK   900      37.128  32.455  28.473  1.00  0.00     0.098 A 
HETATM    2  C2  UNK   900      37.663  31.670  27.473  1.00  0.00     0.139 A 
HETATM    3  N1  UNK   900      39.004  31.734  27.682  1.00  0.00    -0.281 N 
HETATM    4  N2  UNK   900      39.304  32.573  28.687  1.00  0.00     0.004 NA
HETATM    5  N3  UNK   900      38.159  33.019  29.186  1.00  0.00    -0.160 NA
ENDROOT
BRANCH   1   6
HETATM    6  C3  UNK   900      35.687  32.650  28.822  1.00  0.00     0.176 C 
HETATM    7  C7  UNK   900      34.960  31.341  29.147  1.00  0.00     0.039 C 
HETATM    8  C6  UNK   900      33.475  31.591  29.395  1.00  0.00     0.005 C 
HETATM    9  C5  UNK   900      32.860  32.377  28.241  1.00  0.00     0.032 C 
HETATM   10  C4  UNK   900      33.672  33.641  27.957  1.00  0.00     0.122 C 
HETATM   11  O1  UNK   900      35.035  33.294  27.717  1.00  0.00    -0.374 OA
BRANCH  10  12
HETATM   12  C14 UNK   900      33.160  34.352  26.696  1.00  0.00     0.032 C 
BRANCH  12  13
HETATM   13  C15 UNK   900      34.234  34.417  25.600  1.00  0.00     0.004 C 
BRANCH  13  14
HETATM   14  C16 UNK   900      33.877  33.598  24.352  1.00  0.00     0.026 C 
BRANCH  14  15
HETATM   15  C17 UNK   900      32.627  32.731  24.514  1.00  0.00     0.168 C 
BRANCH  15  16
HETATM   16  O4  UNK   900      32.909  31.411  24.050  1.00  0.00    -0.387 OA
BRANCH  16  17
HETATM   17  C23 UNK   900      34.077  30.844  24.652  1.00  0.00     0.206 C 
BRANCH  17  18
HETATM   18  C24 UNK   900      33.752  29.831  25.725  1.00  0.00    -0.035 A 
HETATM   19  C29 UNK   900      34.766  29.163  26.424  1.00  0.00     0.009 A 
HETATM   20  C28 UNK   900      34.458  28.210  27.395  1.00  0.00     0.001 A 
HETATM   21  C27 UNK   900      33.129  27.909  27.676  1.00  0.00     0.000 A 
HETATM   22  C26 UNK   900      32.108  28.553  26.978  1.00  0.00     0.001 A 
HETATM   23  C25 UNK   900      32.419  29.504  26.003  1.00  0.00     0.009 A 
ENDBRANCH  17  18
ENDBRANCH  16  17
ENDBRANCH  15  16
ENDBRANCH  14  15
ENDBRANCH  13  14
ENDBRANCH  12  13
ENDBRANCH  10  12
ENDBRANCH   1   6
BRANCH   3  24
HETATM   24  C8  UNK   900      40.031  30.976  27.005  1.00  0.00     0.178 C 
BRANCH  24  25
HETATM   25  C9  UNK   900      39.607  30.567  25.591  1.00  0.00     0.143 C 
HETATM   26  O2  UNK   900      40.788  30.531  24.772  1.00  0.00    -0.379 OA
HETATM   27  C13 UNK   900      40.479  30.270  23.396  1.00  0.00     0.124 C 
HETATM   28  C12 UNK   900      39.887  28.869  23.280  1.00  0.00     0.064 C 
HETATM   29  C11 UNK   900      38.621  28.765  24.129  1.00  0.00     0.126 C 
HETATM   30  C10 UNK   900      38.916  29.201  25.567  1.00  0.00     0.065 C 
BRANCH  27  31
HETATM   31  C18 UNK   900      41.762  30.398  22.567  1.00  0.00     0.032 C 
BRANCH  31  32
HETATM   32  C19 UNK   900      41.718  31.491  21.493  1.00  0.00     0.004 C 
BRANCH  32  33
HETATM   33  C20 UNK   900      42.698  31.345  20.322  1.00  0.00     0.026 C 
BRANCH  33  34
HETATM   34  C21 UNK   900      42.333  32.168  19.089  1.00  0.00     0.168 C 
BRANCH  34  35
HETATM   35  O3  UNK   900      40.993  31.888  18.692  1.00  0.00    -0.387 OA
BRANCH  35  36
HETATM   36  C22 UNK   900      40.867  30.563  18.173  1.00  0.00     0.206 C 
BRANCH  36  37
HETATM   37  C30 UNK   900      39.532  29.986  18.571  1.00  0.00    -0.035 A 
HETATM   38  C35 UNK   900      39.449  28.980  19.543  1.00  0.00     0.009 A 
HETATM   39  C34 UNK   900      38.218  28.420  19.889  1.00  0.00     0.001 A 
HETATM   40  C33 UNK   900      37.055  28.850  19.252  1.00  0.00     0.000 A 
HETATM   41  C32 UNK   900      37.124  29.840  18.273  1.00  0.00     0.001 A 
HETATM   42  C31 UNK   900      38.356  30.405  17.933  1.00  0.00     0.009 A 
ENDBRANCH  36  37
ENDBRANCH  35  36
ENDBRANCH  34  35
ENDBRANCH  33  34
ENDBRANCH  32  33
ENDBRANCH  31  32
ENDBRANCH  27  31
BRANCH  29  43
HETATM   43  O5  UNK   900      38.189  27.400  24.087  1.00  0.00    -0.386 OA
BRANCH  43  44
HETATM   44  C36 UNK   900      36.770  27.260  24.112  1.00  0.00     0.168 C 
BRANCH  44  45
HETATM   45  C37 UNK   900      36.181  28.190  23.057  1.00  0.00     0.026 C 
BRANCH  45  46
HETATM   46  C38 UNK   900      34.991  27.552  22.347  1.00  0.00    -0.002 C 
HETATM   47  C39 UNK   900      33.992  26.981  23.340  1.00  0.00     0.005 C 
ENDBRANCH  45  46
ENDBRANCH  44  45
ENDBRANCH  43  44
ENDBRANCH  29  43
ENDBRANCH  24  25
ENDBRANCH   3  24
TORSDOF 21
ENDMDL
MODEL 9
REMARK VINA RESULT:      -8.7      3.113      6.794
REMARK  21 active torsions:
REMARK  status: ('A' for Active; 'I' for Inactive)
REMARK    1  A    between atoms: C1_1  and  C3_6 
REMARK    2  A    between atoms: N1_3  and  C8_12 
REMARK    3  A    between atoms: C4_8  and  C14_19 
REMARK    4  A    between atoms: C8_12  and  C9_13 
REMARK    5  A    between atoms: C11_15  and  O5_43 
REMARK    6  A    between atoms: C13_17  and  C18_23 
REMARK    7  A    between atoms: C14_19  and  C15_20 
REMARK    8  A    between atoms: C15_20  and  C16_21 
REMARK    9  A    between atoms: C16_21  and  C17_22 
REMARK   10  A    between atoms: C17_22  and  O4_29 
REMARK   11  A    between atoms: C18_23  and  C19_24 
REMARK   12  A    between atoms: C19_24  and  C20_25 
REMARK   13  A    between atoms: C20_25  and  C21_26 
REMARK   14  A    between atoms: C21_26  and  O3_27 
REMARK   15  A    between atoms: O3_27  and  C22_28 
REMARK   16  A    between atoms: C22_28  and  C30_37 
REMARK   17  A    between atoms: O4_29  and  C23_30 
REMARK   18  A    between atoms: C23_30  and  C24_31 
REMARK   19  A    between atoms: O5_43  and  C36_44 
REMARK   20  A    between atoms: C36_44  and  C37_45 
REMARK   21  A    between atoms: C37_45  and  C38_46 
ROOT
HETATM    1  C1  UNK   900      36.834  31.977  27.276  1.00  0.00     0.098 A 
HETATM    2  C2  UNK   900      37.368  31.257  26.227  1.00  0.00     0.139 A 
HETATM    3  N1  UNK   900      38.701  31.225  26.491  1.00  0.00    -0.281 N 
HETATM    4  N2  UNK   900      39.002  31.951  27.580  1.00  0.00     0.004 NA
HETATM    5  N3  UNK   900      37.862  32.415  28.076  1.00  0.00    -0.160 NA
ENDROOT
BRANCH   1   6
HETATM    6  C3  UNK   900      35.392  32.221  27.589  1.00  0.00     0.176 C 
HETATM    7  C7  UNK   900      34.982  31.730  28.980  1.00  0.00     0.039 C 
HETATM    8  C6  UNK   900      33.483  31.912  29.202  1.00  0.00     0.005 C 
HETATM    9  C5  UNK   900      32.689  31.286  28.060  1.00  0.00     0.032 C 
HETATM   10  C4  UNK   900      33.193  31.797  26.710  1.00  0.00     0.122 C 
HETATM   11  O1  UNK   900      34.594  31.558  26.596  1.00  0.00    -0.374 OA
BRANCH  10  12
HETATM   12  C14 UNK   900      32.513  31.052  25.551  1.00  0.00     0.032 C 
BRANCH  12  13
HETATM   13  C15 UNK   900      33.487  30.109  24.830  1.00  0.00     0.004 C 
BRANCH  13  14
HETATM   14  C16 UNK   900      32.932  28.689  24.649  1.00  0.00     0.026 C 
BRANCH  14  15
HETATM   15  C17 UNK   900      32.420  28.397  23.237  1.00  0.00     0.168 C 
BRANCH  15  16
HETATM   16  O4  UNK   900      31.243  27.593  23.322  1.00  0.00    -0.387 OA
BRANCH  16  17
HETATM   17  C23 UNK   900      31.494  26.289  23.857  1.00  0.00     0.206 C 
BRANCH  17  18
HETATM   18  C24 UNK   900      30.293  25.703  24.562  1.00  0.00    -0.035 A 
HETATM   19  C29 UNK   900      28.991  26.102  24.233  1.00  0.00     0.009 A 
HETATM   20  C28 UNK   900      27.889  25.575  24.906  1.00  0.00     0.001 A 
HETATM   21  C27 UNK   900      28.076  24.644  25.924  1.00  0.00     0.000 A 
HETATM   22  C26 UNK   900      29.366  24.249  26.274  1.00  0.00     0.001 A 
HETATM   23  C25 UNK   900      30.469  24.780  25.602  1.00  0.00     0.009 A 
ENDBRANCH  17  18
ENDBRANCH  16  17
ENDBRANCH  15  16
ENDBRANCH  14  15
ENDBRANCH  13  14
ENDBRANCH  12  13
ENDBRANCH  10  12
ENDBRANCH   1   6
BRANCH   3  24
HETATM   24  C8  UNK   900      39.713  30.475  25.784  1.00  0.00     0.178 C 
BRANCH  24  25
HETATM   25  C9  UNK   900      39.260  29.046  25.473  1.00  0.00     0.143 C 
HETATM   26  O2  UNK   900      38.125  28.754  26.305  1.00  0.00    -0.379 OA
HETATM   27  C13 UNK   900      37.697  27.391  26.170  1.00  0.00     0.124 C 
HETATM   28  C12 UNK   900      37.199  27.169  24.746  1.00  0.00     0.064 C 
HETATM   29  C11 UNK   900      38.317  27.467  23.748  1.00  0.00     0.126 C 
HETATM   30  C10 UNK   900      38.885  28.867  24.000  1.00  0.00     0.065 C 
BRANCH  27  31
HETATM   31  C18 UNK   900      36.590  27.117  27.192  1.00  0.00     0.032 C 
BRANCH  31  32
HETATM   32  C19 UNK   900      35.602  28.274  27.385  1.00  0.00     0.004 C 
BRANCH  32  33
HETATM   33  C20 UNK   900      34.594  28.135  28.533  1.00  0.00     0.026 C 
BRANCH  33  34
HETATM   34  C21 UNK   900      34.411  26.707  29.041  1.00  0.00     0.168 C 
BRANCH  34  35
HETATM   35  O3  UNK   900      33.202  26.155  28.526  1.00  0.00    -0.387 OA
BRANCH  35  36
HETATM   36  C22 UNK   900      32.118  26.320  29.441  1.00  0.00     0.206 C 
BRANCH  36  37
HETATM   37  C30 UNK   900      30.959  26.984  28.741  1.00  0.00    -0.035 A 
HETATM   38  C35 UNK   900      29.639  26.682  29.102  1.00  0.00     0.009 A 
HETATM   39  C34 UNK   900      28.564  27.269  28.432  1.00  0.00     0.001 A 
HETATM   40  C33 UNK   900      28.798  28.155  27.382  1.00  0.00     0.000 A 
HETATM   41  C32 UNK   900      30.106  28.454  27.004  1.00  0.00     0.001 A 
HETATM   42  C31 UNK   900      31.181  27.871  27.679  1.00  0.00     0.009 A 
ENDBRANCH  36  37
ENDBRANCH  35  36
ENDBRANCH  34  35
ENDBRANCH  33  34
ENDBRANCH  32  33
ENDBRANCH  31  32
ENDBRANCH  27  31
BRANCH  29  43
HETATM   43  O5  UNK   900      37.754  27.372  22.434  1.00  0.00    -0.386 OA
BRANCH  43  44
HETATM   44  C36 UNK   900      38.631  27.847  21.414  1.00  0.00     0.168 C 
BRANCH  44  45
HETATM   45  C37 UNK   900      37.782  28.458  20.304  1.00  0.00     0.026 C 
BRANCH  45  46
HETATM   46  C38 UNK   900      38.634  28.868  19.107  1.00  0.00    -0.002 C 
HETATM   47  C39 UNK   900      40.116  28.840  19.442  1.00  0.00     0.005 C 
ENDBRANCH  45  46
ENDBRANCH  44  45
ENDBRANCH  43  44
ENDBRANCH  29  43
ENDBRANCH  24  25
ENDBRANCH   3  24
TORSDOF 21
ENDMDL
MODEL 10
REMARK VINA RESULT:      -8.6      1.639      8.407
REMARK  21 active torsions:
REMARK  status: ('A' for Active; 'I' for Inactive)
REMARK    1  A    between atoms: C1_1  and  C3_6 
REMARK    2  A    between atoms: N1_3  and  C8_12 
REMARK    3  A    between atoms: C4_8  and  C14_19 
REMARK    4  A    between atoms: C8_12  and  C9_13 
REMARK    5  A    between atoms: C11_15  and  O5_43 
REMARK    6  A    between atoms: C13_17  and  C18_23 
REMARK    7  A    between atoms: C14_19  and  C15_20 
REMARK    8  A    between atoms: C15_20  and  C16_21 
REMARK    9  A    between atoms: C16_21  and  C17_22 
REMARK   10  A    between atoms: C17_22  and  O4_29 
REMARK   11  A    between atoms: C18_23  and  C19_24 
REMARK   12  A    between atoms: C19_24  and  C20_25 
REMARK   13  A    between atoms: C20_25  and  C21_26 
REMARK   14  A    between atoms: C21_26  and  O3_27 
REMARK   15  A    between atoms: O3_27  and  C22_28 
REMARK   16  A    between atoms: C22_28  and  C30_37 
REMARK   17  A    between atoms: O4_29  and  C23_30 
REMARK   18  A    between atoms: C23_30  and  C24_31 
REMARK   19  A    between atoms: O5_43  and  C36_44 
REMARK   20  A    between atoms: C36_44  and  C37_45 
REMARK   21  A    between atoms: C37_45  and  C38_46 
ROOT
HETATM    1  C1  UNK   900      35.369  27.678  23.538  1.00  0.00     0.098 A 
HETATM    2  C2  UNK   900      34.020  27.936  23.668  1.00  0.00     0.139 A 
HETATM    3  N1  UNK   900      33.422  26.920  22.993  1.00  0.00    -0.281 N 
HETATM    4  N2  UNK   900      34.327  26.125  22.400  1.00  0.00     0.004 NA
HETATM    5  N3  UNK   900      35.529  26.578  22.732  1.00  0.00    -0.160 NA
ENDROOT
BRANCH   1   6
HETATM    6  C3  UNK   900      36.512  28.391  24.190  1.00  0.00     0.176 C 
HETATM    7  C7  UNK   900      37.414  27.465  25.012  1.00  0.00     0.039 C 
HETATM    8  C6  UNK   900      38.498  28.260  25.733  1.00  0.00     0.005 C 
HETATM    9  C5  UNK   900      37.885  29.406  26.532  1.00  0.00     0.032 C 
HETATM   10  C4  UNK   900      36.967  30.250  25.647  1.00  0.00     0.122 C 
HETATM   11  O1  UNK   900      35.980  29.416  25.043  1.00  0.00    -0.374 OA
BRANCH  10  12
HETATM   12  C14 UNK   900      36.219  31.304  26.477  1.00  0.00     0.032 C 
BRANCH  12  13
HETATM   13  C15 UNK   900      36.334  31.031  27.984  1.00  0.00     0.004 C 
BRANCH  13  14
HETATM   14  C16 UNK   900      35.697  32.126  28.849  1.00  0.00     0.026 C 
BRANCH  14  15
HETATM   15  C17 UNK   900      34.327  31.752  29.417  1.00  0.00     0.168 C 
BRANCH  15  16
HETATM   16  O4  UNK   900      33.429  32.847  29.237  1.00  0.00    -0.387 OA
BRANCH  16  17
HETATM   17  C23 UNK   900      32.412  32.582  28.265  1.00  0.00     0.206 C 
BRANCH  17  18
HETATM   18  C24 UNK   900      32.868  32.852  26.850  1.00  0.00    -0.035 A 
HETATM   19  C29 UNK   900      33.538  34.036  26.517  1.00  0.00     0.009 A 
HETATM   20  C28 UNK   900      33.932  34.290  25.203  1.00  0.00     0.001 A 
HETATM   21  C27 UNK   900      33.655  33.363  24.202  1.00  0.00     0.000 A 
HETATM   22  C26 UNK   900      32.974  32.187  24.515  1.00  0.00     0.001 A 
HETATM   23  C25 UNK   900      32.576  31.937  25.830  1.00  0.00     0.009 A 
ENDBRANCH  17  18
ENDBRANCH  16  17
ENDBRANCH  15  16
ENDBRANCH  14  15
ENDBRANCH  13  14
ENDBRANCH  12  13
ENDBRANCH  10  12
ENDBRANCH   1   6
BRANCH   3  24
HETATM   24  C8  UNK   900      32.009  26.624  22.934  1.00  0.00     0.178 C 
BRANCH  24  25
HETATM   25  C9  UNK   900      31.422  26.328  24.317  1.00  0.00     0.143 C 
HETATM   26  O2  UNK   900      31.303  27.577  25.019  1.00  0.00    -0.379 OA
HETATM   27  C13 UNK   900      30.869  27.392  26.374  1.00  0.00     0.124 C 
HETATM   28  C12 UNK   900      29.456  26.817  26.366  1.00  0.00     0.064 C 
HETATM   29  C11 UNK   900      29.439  25.481  25.624  1.00  0.00     0.126 C 
HETATM   30  C10 UNK   900      30.054  25.647  24.231  1.00  0.00     0.065 C 
BRANCH  27  31
HETATM   31  C18 UNK   900      30.913  28.742  27.097  1.00  0.00     0.032 C 
BRANCH  31  32
HETATM   32  C19 UNK   900      32.141  28.944  27.993  1.00  0.00     0.004 C 
BRANCH  32  33
HETATM   33  C20 UNK   900      33.511  28.717  27.343  1.00  0.00     0.026 C 
BRANCH  33  34
HETATM   34  C21 UNK   900      34.421  27.760  28.110  1.00  0.00     0.168 C 
BRANCH  34  35
HETATM   35  O3  UNK   900      34.086  27.771  29.495  1.00  0.00    -0.387 OA
BRANCH  35  36
HETATM   36  C22 UNK   900      34.035  26.449  30.033  1.00  0.00     0.206 C 
BRANCH  36  37
HETATM   37  C30 UNK   900      32.678  25.846  29.770  1.00  0.00    -0.035 A 
HETATM   38  C35 UNK   900      31.509  26.523  30.145  1.00  0.00     0.009 A 
HETATM   39  C34 UNK   900      30.254  25.951  29.935  1.00  0.00     0.001 A 
HETATM   40  C33 UNK   900      30.153  24.685  29.359  1.00  0.00     0.000 A 
HETATM   41  C32 UNK   900      31.307  23.995  28.994  1.00  0.00     0.001 A 
HETATM   42  C31 UNK   900      32.564  24.571  29.199  1.00  0.00     0.009 A 
ENDBRANCH  36  37
ENDBRANCH  35  36
ENDBRANCH  34  35
ENDBRANCH  33  34
ENDBRANCH  32  33
ENDBRANCH  31  32
ENDBRANCH  27  31
BRANCH  29  43
HETATM   43  O5  UNK   900      28.073  25.060  25.534  1.00  0.00    -0.386 OA
BRANCH  43  44
HETATM   44  C36 UNK   900      27.829  23.809  26.176  1.00  0.00     0.168 C 
BRANCH  44  45
HETATM   45  C37 UNK   900      29.126  23.008  26.166  1.00  0.00     0.026 C 
BRANCH  45  46
HETATM   46  C38 UNK   900      29.073  21.842  27.148  1.00  0.00    -0.002 C 
HETATM   47  C39 UNK   900      27.930  21.999  28.137  1.00  0.00     0.005 C 
ENDBRANCH  45  46
ENDBRANCH  44  45
ENDBRANCH  43  44
ENDBRANCH  29  43
ENDBRANCH  24  25
ENDBRANCH   3  24
TORSDOF 21
ENDMDL
